Version 4
SHEET 1 1000 680
WIRE 528 -192 432 -192
WIRE 768 -192 528 -192
WIRE 432 -176 432 -192
WIRE 528 -160 528 -192
WIRE 320 -64 288 -64
WIRE 768 -32 768 -192
WIRE 768 -32 656 -32
WIRE 880 -32 768 -32
WIRE -176 0 -272 0
WIRE -48 0 -176 0
WIRE 32 0 -48 0
WIRE 112 0 32 0
WIRE 208 0 208 -64
WIRE 208 0 112 0
WIRE 320 0 320 -64
WIRE 352 0 320 0
WIRE 432 0 432 -96
WIRE 528 0 528 -80
WIRE 528 0 432 0
WIRE 656 16 656 -32
WIRE 768 16 768 -32
WIRE 880 16 880 -32
WIRE -272 48 -272 0
WIRE -176 48 -176 0
WIRE 208 48 208 0
WIRE 320 48 320 0
WIRE 320 48 288 48
WIRE -48 80 -48 0
WIRE 32 80 32 0
WIRE 112 80 112 0
WIRE 528 80 528 0
WIRE 432 96 432 0
WIRE 128 144 112 144
WIRE -272 176 -272 128
WIRE -224 176 -272 176
WIRE -176 176 -176 128
WIRE -176 176 -224 176
WIRE 656 176 656 96
WIRE 768 176 768 80
WIRE 768 176 656 176
WIRE 880 176 880 96
WIRE 880 176 768 176
WIRE -224 208 -224 176
WIRE -48 272 -48 160
WIRE -48 272 -224 272
WIRE 32 272 32 160
WIRE 32 272 -48 272
WIRE 128 272 128 144
WIRE 128 272 32 272
WIRE 432 272 432 160
WIRE 432 272 128 272
WIRE 528 272 528 160
WIRE 528 272 432 272
WIRE 560 272 528 272
WIRE 768 272 768 176
WIRE 768 272 560 272
WIRE 560 304 560 272
FLAG 560 304 0
SYMBOL res 304 -80 R90
WINDOW 0 0 56 VBottom 2
WINDOW 3 32 56 VTop 2
SYMATTR InstName R1
SYMATTR Value 0.082
SYMBOL ind 304 32 R90
WINDOW 0 5 56 VBottom 2
WINDOW 3 32 56 VTop 2
SYMATTR InstName L1
SYMATTR Value 3544.6
SYMBOL cap 96 80 R0
SYMATTR InstName C1
SYMATTR Value 0.029
SYMBOL cap -240 208 R0
SYMATTR InstName C2
SYMATTR Value 1.7376
SYMBOL ind 16 64 R0
SYMATTR InstName L2
SYMATTR Value 1357
SYMBOL res -64 64 R0
SYMATTR InstName R2
SYMATTR Value 0.00318
SYMBOL res -288 32 R0
SYMATTR InstName R3
SYMATTR Value 0.306
SYMBOL ind -192 32 R0
SYMATTR InstName L3
SYMATTR Value 16972
SYMBOL res 448 -16 R90
WINDOW 0 0 56 VBottom 2
WINDOW 3 32 56 VTop 2
SYMATTR InstName R4
SYMATTR Value 0.1n
SYMBOL cap 416 96 R0
SYMATTR InstName C3
SYMATTR Value 0.1
SYMBOL current 656 16 R0
WINDOW 123 24 108 Left 2
WINDOW 39 0 0 Left 2
SYMATTR Value2 AC 8.5
SYMATTR InstName I1
SYMATTR Value ""
SYMBOL res 416 -192 R0
SYMATTR InstName R5
SYMATTR Value {R}
SYMBOL ind 864 0 R0
SYMATTR InstName L5
SYMATTR Value 100
SYMBOL cap 752 16 R0
SYMATTR InstName C4
SYMATTR Value .018
SYMBOL ind 512 -176 R0
SYMATTR InstName L6
SYMATTR Value {L3}
SYMATTR SpiceLine Rser=0 Rpar=0
SYMBOL ind 512 64 R0
SYMATTR InstName L4
SYMATTR Value {L2}
SYMATTR SpiceLine Rser=0 Rpar=0
TEXT -288 288 Left 2 !.ac oct 40 1 1000
TEXT -232 -184 Left 2 !.step dec param R 0.1 10 2
TEXT -232 -152 Left 2 !.step dec param L3 1u 1 2
TEXT -312 -120 Left 2 ;.step param GATE list 1f 20000G
TEXT -232 -216 Left 2 !.step dec param L2 1u 1 2
TEXT -232 -88 Left 2 !.option fastaccess
